data_image0
_chemical_formula_structural       Pt8O4
_chemical_formula_sum              "Pt8 O4"
_cell_length_a       5.19394
_cell_length_b       5.19394
_cell_length_c       5.19394
_cell_angle_alpha    90
_cell_angle_beta     90
_cell_angle_gamma    90

_space_group_name_H-M_alt    "P 1"
_space_group_IT_number       1

loop_
  _space_group_symop_operation_xyz
  'x, y, z'

loop_
  _atom_site_type_symbol
  _atom_site_label
  _atom_site_symmetry_multiplicity
  _atom_site_fract_x
  _atom_site_fract_y
  _atom_site_fract_z
  _atom_site_occupancy
  Pt  Pt1       1.0  0.25000  0.25000  0.25000  1.0000
  Pt  Pt2       1.0  0.75000  0.75000  0.25000  1.0000
  Pt  Pt3       1.0  0.75000  0.25000  0.75000  1.0000
  Pt  Pt4       1.0  0.25000  0.75000  0.75000  1.0000
  Pt  Pt5       1.0  0.25000  0.25000  0.75000  1.0000
  Pt  Pt6       1.0  0.75000  0.75000  0.75000  1.0000
  Pt  Pt7       1.0  0.25000  0.75000  0.25000  1.0000
  Pt  Pt8       1.0  0.75000  0.25000  0.25000  1.0000
  O   O1        1.0  0.00000  0.00000  0.00000  1.0000
  O   O2        1.0  0.00000  0.50000  0.50000  1.0000
  O   O3        1.0  0.50000  0.00000  0.50000  1.0000
  O   O4        1.0  0.50000  0.50000  0.00000  1.0000
